LTspice 24.0.12 for Windows
Circuit: * C:\Users\Ernesto\Desktop\IngenierÌa ElectrÛnica\9- Noveno Semestre\ElectrÛnica Industrial\1- Trabajo Final Integrador (TFI)\Archivos de la SimulaciÛn\TFI - SimulaciÛn del Convertidor Boost Dual Trif·sico.asc
Start Time: Sun Jun 14 16:50:24 2026
Warning: Multiple definitions of model "cpw41200s020b" Type: Diode
Warning: Multiple definitions of model "cpw41200s015b" Type: Diode
Warning: Multiple definitions of model "cpw41200s010b" Type: Diode
Warning: Multiple definitions of model "cpw41200s008b" Type: Diode
Warning: Multiple definitions of model "cpw41200s005b" Type: Diode
Warning: Multiple definitions of model "cpw41200s002b" Type: Diode
.ic: Inductor "l1" not found -- ignoring
.ic: Inductor "l2" not found -- ignoring
.ic: Inductor "l3" not found -- ignoring
.ic: Inductor "l4" not found -- ignoring
.ic: Inductor "l5" not found -- ignoring
.ic: Inductor "l6" not found -- ignoring
solver = Normal
Maximum thread count: 12
tnom = 27
temp = 27
method = modified trap
Per .tran options, skipping operating point for transient analysis.
Heightened Def Con from 1.9638e-05 to 1.96382e-05
Heightened Def Con from 1.96382e-05 to 1.96412e-05
Heightened Def Con from 2.78045e-05 to 2.78075e-05
Heightened Def Con from 5.47789e-05 to 5.47819e-05
Heightened Def Con from 5.66228e-05 to 5.66258e-05
Heightened Def Con from 6.31881e-05 to 6.31911e-05
Heightened Def Con from 6.66223e-05 to 6.66253e-05
Heightened Def Con from 0.00115113 to 0.00115113
Total elapsed time: 168.166 seconds.

