LTspice 24.0.12 for Windows
Circuit: * C:\Users\Ernesto\Desktop\Ingeniería Electrónica\9- Noveno Semestre\Electrónica Industrial\1- Trabajo Final Integrador (TFI)\Archivos de la Simulación\TFI - Simulación del Convertidor Boost Dual Trifásico (Con Circuito de Disparo).asc
Start Time: Sun Jun 14 18:54:25 2026
Warning: Multiple definitions of model "cpw41200s020b" Type: Diode
Warning: Multiple definitions of model "cpw41200s015b" Type: Diode
Warning: Multiple definitions of model "cpw41200s010b" Type: Diode
Warning: Multiple definitions of model "cpw41200s008b" Type: Diode
Warning: Multiple definitions of model "cpw41200s005b" Type: Diode
Warning: Multiple definitions of model "cpw41200s002b" Type: Diode
.ic: Inductor "l1" not found -- ignoring
.ic: Inductor "l2" not found -- ignoring
.ic: Inductor "l3" not found -- ignoring
.ic: Inductor "l4" not found -- ignoring
.ic: Inductor "l5" not found -- ignoring
.ic: Inductor "l6" not found -- ignoring
solver = Normal
Maximum thread count: 12
tnom = 27
temp = 27
method = modified trap
Per .tran options, skipping operating point for transient analysis.
Total elapsed time: 481.123 seconds.

