LTspice 24.0.12 for Windows
Circuit: * C:\Users\Ernesto\Desktop\Ingeniería Electrónica\9- Noveno Semestre\Electrónica Industrial\1- Trabajo Final Integrador (TFI)\Archivos de la Simulación\TFI - Simulación del Convertidor Boost Monofásico (sin Circuito de Disparo).asc
Start Time: Sun Jun 14 16:53:29 2026
Warning: Multiple definitions of model "cpw41200s020b" Type: Diode
Warning: Multiple definitions of model "cpw41200s015b" Type: Diode
Warning: Multiple definitions of model "cpw41200s010b" Type: Diode
Warning: Multiple definitions of model "cpw41200s008b" Type: Diode
Warning: Multiple definitions of model "cpw41200s005b" Type: Diode
Warning: Multiple definitions of model "cpw41200s002b" Type: Diode
solver = Normal
Maximum thread count: 12
tnom = 27
temp = 27
method = modified trap
WARNING: Less than two connections to node nc_01.  This node is used by l:u2:_anode1.
Direct Newton iteration for .op point succeeded.
Heightened Def Con from 0.000959364 to 0.000959367
Heightened Def Con from 0.00105914 to 0.00105914
Heightened Def Con from 0.00107916 to 0.00107917
Heightened Def Con from 0.0011593 to 0.0011593
Heightened Def Con from 0.00188999 to 0.00188999
Heightened Def Con from 0.0019094 to 0.0019094
Heightened Def Con from 0.00195918 to 0.00195919
Heightened Def Con from 0.00212907 to 0.00212908
Heightened Def Con from 0.00265989 to 0.00265989
Heightened Def Con from 0.00337979 to 0.00337979
Heightened Def Con from 0.00482919 to 0.00482919
Total elapsed time: 16.386 seconds.

