LTspice 24.0.12 for Windows
Circuit: * C:\Users\Ernesto\Desktop\TPT9 - Placa de Control de un Sem·foro.asc
Start Time: Wed May 20 11:42:17 2026
solver = Normal
Maximum thread count: 12
tnom = 27
temp = 27
method = modified trap
Direct Newton iteration for .op point succeeded.
Total elapsed time: 0.398 seconds.

