Missing ".ends" statement in file "thyristr.lib"
LTspice 24.0.12 for Windows
Circuit: * C:\Users\Ernesto\Desktop\IngenierÌa ElectrÛnica\9- Noveno Semestre\ElectrÛnica Industrial\1- Trabajos Pr·cticos\1- Trabajos Pr·cticos del TeÛrico (TPT)\TPT8 - Tiristores con Carga RLE y TCA785\TPT8 - Rectificador Monof·sico Controlado.asc
Start Time: Tue May 12 22:40:42 2026
solver = Normal
Maximum thread count: 12
tnom = 27
temp = 27
method = modified trap
WARNING: Node U4:GATE2 is floating.

U1:viak: Missing value, assumed 0V @ DC
U1:vigf: Missing value, assumed 0V @ DC
U2:viak: Missing value, assumed 0V @ DC
U2:vigf: Missing value, assumed 0V @ DC
U3:viak: Missing value, assumed 0V @ DC
U3:vigf: Missing value, assumed 0V @ DC
U4:viak: Missing value, assumed 0V @ DC
U4:vigf: Missing value, assumed 0V @ DC
.OP point found by inspection.
Total elapsed time: 1.572 seconds.

